*Heading
** Job name: BuckleCylinder Model name: Model-1
** Generated by: Abaqus/CAE Learning Edition 2025
*Preprint, echo=NO, model=NO, history=NO, contact=NO
**
** PARTS
**
*Part, name=Cylinder
*Node
      1,   95.5572815,  -29.4755173,         500.
      2,   82.6238785,  -56.3320045,         500.
      3,   62.3489799,  -78.1831512,         500.
      4,   36.5341034,  -93.0873718,         500.
      5,   7.47300959,  -99.7203827,         500.
      6,  -22.2520943,  -97.4927902,         500.
      7,         -50.,  -86.6025391,         500.
      8,  -73.3051834,  -68.0172729,         500.
      9,  -90.0968857,  -43.3883743,         500.
     10,  -98.8830795,  -14.9042263,         500.
     11,  -98.8830795,   14.9042263,         500.
     12,  -90.0968857,   43.3883743,         500.
     13,  -73.3051834,   68.0172729,         500.
     14,         -50.,   86.6025391,         500.
     15,  -22.2520943,   97.4927902,         500.
     16,   7.47300959,   99.7203827,         500.
     17,   36.5341034,   93.0873718,         500.
     18,   62.3489799,   78.1831512,         500.
     19,   82.6238785,   56.3320045,         500.
     20,   95.5572815,   29.4755173,         500.
** ... 358 like lines cut
*Element, type=S4
  1,  21,   1,  22,  42
  2,   1,   2,  23,  22
  3,   2,   3,  24,  23
  4,   3,   4,  25,  24
  5,   4,   5,  26,  25
  6,   5,   6,  27,  26
  7,   6,   7,  28,  27
  8,   7,   8,  29,  28
  9,   8,   9,  30,  29
 10,   9,  10,  31,  30
 11,  10,  11,  32,  31
 12,  11,  12,  33,  32
 13,  12,  13,  34,  33
 14,  13,  14,  35,  34
 15,  14,  15,  36,  35
 16,  15,  16,  37,  36
 17,  16,  17,  38,  37
 18,  17,  18,  39,  38
 19,  18,  19,  40,  39
 20,  19,  20,  41,  40
** ... 337 like lines cut
*Nset, nset=_PickedSet2, internal, generate
   1,  378,    1
*Elset, elset=_PickedSet2, internal, generate
   1,  357,    1
** Section: Section-1
*Shell Section, elset=_PickedSet2, material=Steel
2., 5
*End Part
**  
**
** ASSEMBLY
**
*Assembly, name=Assembly
**  
*Instance, name=Cylinder-1, part=Cylinder
*End Instance
**  
*Nset, nset=Bottom, instance=Cylinder-1, generate
 358,  378,    1
*Elset, elset=Bottom, instance=Cylinder-1, generate
 337,  357,    1
*Elset, elset=_Top_E1, internal, instance=Cylinder-1, generate
  1,  21,   1
*Surface, type=ELEMENT, name=Top
_Top_E1, E1
*End Assembly
** 
** MATERIALS
** 
*Material, name=Steel
*Elastic
200000., 0.3
** 
** BOUNDARY CONDITIONS
** 
** Name: BC-1 Type: Symmetry/Antisymmetry/Encastre
*Boundary
Bottom, ENCASTRE
** ----------------------------------------------------------------
** 
** STEP: Step-1
** 
*Step, name=Step-1, nlgeom=NO, perturbation
*Buckle
1, , 3, 50
** 
** BOUNDARY CONDITIONS
** 
** Name: BC-1 Type: Symmetry/Antisymmetry/Encastre
*Boundary, op=NEW, load case=1
Bottom, ENCASTRE
*Boundary, op=NEW, load case=2
Bottom, ENCASTRE
** 
** LOADS
** 
** Name: Load-1   Type: Shell edge load
*Dsload
Top, EDNOR, -1.59155
** 
** OUTPUT REQUESTS
** 
*Restart, write, frequency=0
** 
** FIELD OUTPUT: F-Output-1
** 
*Output, field, variable=PRESELECT
*End Step
