*Heading
** Job name: NonlinearCylinder Model name: Model-1
** Generated by: Abaqus/CAE Learning Edition 2025
*Preprint, echo=NO, model=NO, history=NO, contact=NO
**
** PARTS
**
*Part, name=Cylinder
*Node
      1,   86.6025391,         -50.,        1000.
      2,          50.,  -86.6025391,        1000.
      3,           0.,        -100.,        1000.
      4,         -50.,  -86.6025391,        1000.
      5,  -86.6025391,         -50.,        1000.
      6,        -100.,           0.,        1000.
      7,  -86.6025391,          50.,        1000.
      8,         -50.,   86.6025391,        1000.
      9,           0.,         100.,        1000.
     10,          50.,   86.6025391,        1000.
     11,   86.6025391,          50.,        1000.
     12,         100.,           0.,        1000.
     13,   86.6025391,         -50.,   947.368408
     14,          50.,  -86.6025391,   947.368408
     15,           0.,        -100.,   947.368408
     16,         -50.,  -86.6025391,   947.368408
     17,  -86.6025391,         -50.,   947.368408
     18,        -100.,           0.,   947.368408
     19,  -86.6025391,          50.,   947.368408
     20,         -50.,   86.6025391,   947.368408
** ... 220 like lines cut
*Element, type=S4
  1,  12,   1,  13,  24
  2,   1,   2,  14,  13
  3,   2,   3,  15,  14
  4,   3,   4,  16,  15
  5,   4,   5,  17,  16
  6,   5,   6,  18,  17
  7,   6,   7,  19,  18
  8,   7,   8,  20,  19
  9,   8,   9,  21,  20
 10,   9,  10,  22,  21
 11,  10,  11,  23,  22
 12,  11,  12,  24,  23
 13,  24,  13,  25,  36
 14,  13,  14,  26,  25
 15,  14,  15,  27,  26
 16,  15,  16,  28,  27
 17,  16,  17,  29,  28
 18,  17,  18,  30,  29
 19,  18,  19,  31,  30
 20,  19,  20,  32,  31
** ... 208 like lines cut
*Nset, nset=_PickedSet2, internal, generate
   1,  240,    1
*Elset, elset=_PickedSet2, internal, generate
   1,  228,    1
** Section: Section-1
*Shell Section, elset=_PickedSet2, material=Steel
2., 5
*End Part
**  
**
** ASSEMBLY
**
*Assembly, name=Assembly
**  
*Instance, name=Cylinder-1, part=Cylinder
*End Instance
**  
*Nset, nset=Bottom, instance=Cylinder-1, generate
 229,  240,    1
*Elset, elset=Bottom, instance=Cylinder-1, generate
 217,  228,    1
*Elset, elset=_Top_E1, internal, instance=Cylinder-1, generate
  1,  12,   1
*Surface, type=ELEMENT, name=Top
_Top_E1, E1
*End Assembly
** 
** MATERIALS
** 
*Material, name=Steel
*Elastic
200000., 0.3
** 
** BOUNDARY CONDITIONS
** 
** Name: BC-1 Type: Symmetry/Antisymmetry/Encastre
*Boundary
Bottom, ENCASTRE
** ----------------------------------------------------------------
** 
** STEP: Step-1
** 
*Step, name=Step-1, nlgeom=YES
*Static
0.1, 1., 0.1, 0.1
** 
** LOADS
** 
** Name: Load-1   Type: Surface traction
*Dsload
Top, TRVEC, 100000., 0., 1., 0.
** 
** OUTPUT REQUESTS
** 
*Restart, write, frequency=0
** 
** FIELD OUTPUT: F-Output-1
** 
*Output, field, variable=PRESELECT
** 
** HISTORY OUTPUT: H-Output-1
** 
*Output, history, variable=PRESELECT
*End Step
